16
Properties=species:S:1:pos:R:3 free=T pbc="F F F"
Si       9.84684319      10.85429466       8.11759400
Si       6.58420488       9.55545298       5.98826029
Si       7.45327076      11.02029638       7.97663580
Si       9.81479261       7.24371168      10.28050956
Si       5.19577873       7.47796091       9.65357535
Si      10.09276484       8.65278758       6.81586108
Si       8.75894114       5.77260801       8.54127412
Si       8.53785352       8.51681315       4.84984805
Si      11.08148331       6.89517482       8.15822504
Si       9.77933809       5.87509701       6.43063405
Si       8.83968226       8.87502134       8.82615525
Si       6.37319469       6.10840131       8.06719783
Si       7.46345531       7.23142169      10.10894211
Si       8.71778962      10.69648364       5.95891459
Si       6.43769162       8.89695814       8.28536246
Si       7.89264325       7.44284236       6.82515605
